<routes>
   <vType id="car"
   			vClass="passenger" length="5" accel="0.25" decel="1.0"
   			sigma="1.0" maxSpeed="100"/>
   <vType id="ev"
      		vClass="emergency" length="7" accel="5.5" decel="2.2" sigma="1.0"
      		maxSpeed="100" guiShape="emergency" speedFactor="2.0"
      		minGapLat="0.2"/>
    <route id="route_0" edges="e1 e2 e3 e4 e5 e6 e7 e8" repeat="1000"/>
    <!--<flow id="carflow" type="car" beg="0" end="0" number="5" from="e1" to="e8"/>-->
    <!--<flow id="evflow" type="ev" beg="0" end="0" number="1" from="e1" to="e8"/>-->
    <vehicle id="1" type="car" route="route_0" depart="0" color="1,0,0"/>
    <vehicle id="2" type="car" route="route_0" depart="0" color="0,1,0"/>
</routes>
